data_phase1
_cell_length_a 10.26355000
_cell_length_b 10.26355000
_cell_length_c 10.26355000
_cell_angle_alpha 90.00000000
_cell_angle_beta 90.00000000
_cell_angle_gamma 90.00000000
_space_group_name_H-M_ref 'F d -3 m'
_space_group_IT_coordinate_system_code 2

loop_
_atom_site_susceptibility_label
_atom_site_susceptibility_chi_type
_atom_site_susceptibility_chi_11
_atom_site_susceptibility_chi_12
_atom_site_susceptibility_chi_13
_atom_site_susceptibility_chi_22
_atom_site_susceptibility_chi_23
_atom_site_susceptibility_chi_33
Ho1 Cani 3.28100000000(35000000) 3.71200000000(31000000) 3.71200000 3.28100000 3.71200000 3.28100000

loop_
_atom_site_label
_atom_site_type_symbol
_atom_site_fract_x
_atom_site_fract_y
_atom_site_fract_z
_atom_site_occupancy
_atom_site_adp_type
_atom_site_U_iso_or_equiv
Ho1 Ho3+ 0.50000000 0.50000000 0.50000000 1.00000000 Uiso 0.00000000
Ti1 Ti3+ 0.00000000 0.00000000 0.00000000 1.00000000 Uiso 0.00000000
O1 O2- 0.32960000 0.12500000 0.12500000 1.00000000 Uiso 0.00000000
O2 O2- 0.37500000 0.37500000 0.37500000 1.00000000 Uiso 0.00000000
